[Config Single-UE]
network=cqfscheduler.simulations.NR.networks.SingleCell_Standalone
sim-time-limit = 10s

output-vector-file = results/output.vec
output-scalar-file = results/output.sca
debug-on-errors = false
cmdenv-redirect-output = true
cmdenv-output-file = results/simulation_output.txt

# gNodeB position 
*.gnb.mobility.initialX = 500m 
*.gnb.mobility.initialY = 500m 

# UE configuration 
*.numUe = 1 

# UE position (400m far from the gNB)
*.ue[*].mobility.initialX = 500m 
*.ue[*].mobility.initialY = 900m 

# Bandwidth
**.numBands = 50



 
# connect the UE's NIC (NR side) to the corresponding serving gNB 
*.ue[*].macCellId = 0 
*.ue[*].masterId = 0 
*.ue[*].nrMacCellId = 1 
*.ue[*].nrMasterId = 1 
 
# Application Setup 
*.ue[*].numApps = 1 
*.server.numApps = 1 
 
*.ue[*].app[*].typename = "CbrReceiver" 
*.ue[*].app[*].localPort = 1000 
 
*.server.app[*].typename = "CbrSender"   
*.server.app[*].PacketSize = 1000      # send 800 Kb/s 
*.server.app[*].sampling_time = 0.01s 
*.server.app[*].destAddress = "ue["+string(ancestorIndex(0))+"]" # obtain the address of the client by reading its index in the array of Apps 
*.server.app[*].destPort = 1000  
*.server.app[*].localPort = 3088+ancestorIndex(0)  
*.server.app[*].startTime = uniform(0.01s,0.05s) 

